94
 generated by VMD
 C          -9.486124      -11.900465        4.138598
 H         -10.244448      -11.748903        3.363133
 H          -9.625058      -12.907256        4.546714
 H          -9.673472      -11.179976        4.942136
 C          -8.077588      -11.736304        3.562225
 H          -7.950320      -12.484310        2.769431
 C          -7.039603      -12.011893        4.651050
 H          -7.076881      -11.250213        5.437160
 H          -7.215952      -12.987272        5.117477
 H          -6.025774      -12.029646        4.240108
 C          -7.926089      -10.333031        2.946167
 H          -8.035447       -9.571171        3.728620
 H          -8.744468      -10.170189        2.232877
 C          -6.593188      -10.126383        2.217654
 H          -6.460316      -10.930550        1.486300
 H          -5.763212      -10.185298        2.929961
 C          -6.553952       -8.763317        1.516778
 H          -6.809368       -7.989574        2.252421
 H          -7.330845       -8.728689        0.742292
 C          -5.181893       -8.422731        0.893449
 H          -4.419426       -8.502851        1.679180
 C          -4.815220       -9.397868       -0.229404
 H          -3.828684       -9.175836       -0.646539
 H          -4.770370      -10.428610        0.134122
 H          -5.546371       -9.355698       -1.043573
 C          -5.206616       -6.961040        0.393336
 H          -5.561038       -6.316806        1.208382
 H          -5.932219       -6.860842       -0.424016
 C          -3.840235       -6.443929       -0.072774
 H          -3.519267       -7.006347       -0.953996
 H          -3.097031       -6.608821        0.716083
 C          -3.902632       -4.950349       -0.415003
 H          -4.328520       -4.415827        0.443978
 H          -4.593652       -4.797286       -1.253840
 C          -2.527807       -4.330519       -0.751030
 H          -1.846761       -4.534704        0.085410
 C          -1.925880       -4.944757       -2.018524
 H          -0.939791       -4.524997       -2.237583
 H          -1.783733       -6.024103       -1.912097
 H          -2.570455       -4.770176       -2.886458
 C          -2.685275       -2.799186       -0.881414
 H          -3.328362       -2.564475       -1.739239
 H          -3.201326       -2.420278        0.010288
 C          -1.355043       -2.051995       -1.022262
 H          -0.682485       -2.343754       -0.206849
 H          -0.865977       -2.323410       -1.963980
 C          -1.566281       -0.534657       -0.994072
 H          -2.050621       -0.250185       -0.052647
 H          -2.244304       -0.257340       -1.808501
 C          -0.236273        0.211558       -1.135746
 H           0.206785       -0.014176       -2.114063
 H           0.459189       -0.172844       -0.378676
 C          -0.355431        1.740951       -0.963423
 H          -0.903335        1.966592        0.200678
 C          -1.252296        2.378947       -2.027018
 H          -2.262197        1.960149       -1.999816
 H          -1.360716        3.455000       -1.865006
 H          -0.843157        2.223226       -3.030557
 C           1.054157        2.370835       -0.928360
 H           1.662186        1.820161       -0.199441
 H           1.539481        2.248030       -1.904604
 C           1.055051        3.853023       -0.536595
 H           0.547246        4.434721       -1.311076
 H           0.495974        3.984273        0.398663
 C           2.484790        4.376870       -0.358232
 H           3.011588        3.714506        0.340807
 H           3.018671        4.311917       -1.314955
 C           2.555191        5.822403        0.182569
 H           1.979930        5.866817        1.116544
 C           1.945431        6.824535       -0.802306
 H           0.894360        6.598799       -1.004378
 H           1.969964        7.842968       -0.403833
 H           2.484177        6.819058       -1.755703
 C           4.026392        6.166129        0.505668
 H           4.442023        5.374989        1.143185
 H           4.617612        6.166964       -0.419018
 C           4.203858        7.508167        1.225411
 H           3.908300        8.331492        0.566617
 H           3.547359        7.532470        2.101828
 C           5.660950        7.714437        1.654771
 H           5.944543        6.931086        2.369304
 H           6.306761        7.586768        0.776325
 C           5.929037        9.100622        2.269774
 H           5.624893        9.870275        1.549100
 C           5.150251        9.325062        3.566711
 H           4.071172        9.338487        3.386576
 H           5.414455       10.288374        4.016418
 H           5.365020        8.540191        4.299770
 C           7.427576        9.270793        2.531567
 H           8.000293        9.156182        1.605155
 H           7.642147       10.266679        2.933625
 H           7.792464        8.529046        3.250277
 C          -1.412117        2.482408        1.845913
 N          -1.727295        2.805021        2.871211
