94
 generated by VMD
 C          -9.527461      -12.155508        3.932635
 H         -10.281734      -11.971597        3.160219
 H          -9.667598      -13.178885        4.296692
 H          -9.719899      -11.470071        4.765118
 C          -8.115977      -11.965773        3.371505
 H          -7.983580      -12.679341        2.548368
 C          -7.083577      -12.286444        4.453250
 H          -7.126171      -11.559068        5.270944
 H          -7.261176      -13.281043        4.876639
 H          -6.067497      -12.285507        4.047514
 C          -7.962829      -10.537482        2.816337
 H          -8.078079       -9.809504        3.629586
 H          -8.777205      -10.345780        2.105628
 C          -6.625897      -10.298392        2.105322
 H          -6.486429      -11.072168        1.343079
 H          -5.800249      -10.383935        2.819975
 C          -6.586044       -8.908218        1.459897
 H          -6.847617       -8.165006        2.224294
 H          -7.358781       -8.844671        0.683047
 C          -5.211673       -8.539274        0.857995
 H          -4.453596       -8.644849        1.644982
 C          -4.833667       -9.471065       -0.297430
 H          -3.845437       -9.229939       -0.699671
 H          -4.786369      -10.514223        0.028391
 H          -5.559847       -9.402145       -1.114216
 C          -5.240169       -7.060197        0.411960
 H          -5.596729       -6.447449        1.250035
 H          -5.966060       -6.932276       -0.401295
 C          -3.875667       -6.521907       -0.035405
 H          -3.553986       -7.050470       -0.937040
 H          -3.131165       -6.713344        0.746176
 C          -3.943299       -5.016938       -0.322161
 H          -4.363100       -4.515266        0.559348
 H          -4.641620       -4.834722       -1.149083
 C          -2.572726       -4.381838       -0.647297
 H          -1.882876       -4.616294        0.173864
 C          -1.982265       -4.945864       -1.943249
 H          -0.998426       -4.517096       -2.154895
 H          -1.838273       -6.028349       -1.880246
 H          -2.634949       -4.738381       -2.797775
 C          -2.735112       -2.846953       -0.716738
 H          -3.396810       -2.582266       -1.551454
 H          -3.233229       -2.503385        0.199171
 C          -1.410371       -2.090249       -0.858578
 H          -0.717320       -2.411580       -0.071929
 H          -0.943663       -2.322515       -1.821905
 C          -1.625022       -0.575889       -0.765392
 H          -2.074799       -0.328106        0.203480
 H          -2.333199       -0.270842       -1.543291
 C          -0.303095        0.181810       -0.926905
 H           0.104529       -0.006740       -1.928378
 H           0.420917       -0.229135       -0.211349
 C          -0.423661        1.704253       -0.691716
 H          -0.865867        1.860952        0.300338
 C          -1.333600        2.366320       -1.730616
 H          -2.340331        1.938942       -1.712594
 H          -1.451439        3.436259       -1.535367
 H          -0.930869        2.246443       -2.741870
 C           0.991770        2.323919       -0.692498
 H           1.612460        1.778924        0.030513
 H           1.456825        2.179104       -1.676187
 C           1.024286        3.814867       -0.333905
 H           0.502800        4.385048       -1.107661
 H           0.496670        3.980523        0.613680
 C           2.468537        4.318200       -0.214598
 H           2.998713        3.677979        0.502368
 H           2.977679        4.196787       -1.179341
 C           2.583265        5.786154        0.252618
 H           2.026265        5.891191        1.192169
 C           1.983211        6.753603       -0.772251
 H           0.927137        6.538924       -0.958127
 H           2.029232        7.788278       -0.420119
 H           2.514614        6.695477       -1.728018
 C           4.067445        6.109103        0.535940
 H           4.473125        5.343193        1.209647
 H           4.644222        6.045052       -0.395635
 C           4.288666        7.483279        1.179019
 H           4.001784        8.276788        0.480965
 H           3.647500        7.571079        2.062728
 C           5.757124        7.676936        1.574052
 H           6.033811        6.927508        2.326638
 H           6.385037        7.485140        0.694283
 C           6.068235        9.088048        2.106693
 H           5.770318        9.823890        1.349055
 C           5.316916        9.403074        3.400982
 H           4.235513        9.431994        3.237405
 H           5.610651       10.383512        3.791486
 H           5.526206        8.655591        4.173621
 C           7.574572        9.235690        2.335329
 H           8.128765        9.055757        1.408035
 H           7.819354       10.246837        2.677596
 H           7.933862        8.526330        3.088712
 C          -1.162252        6.016159        2.129319
 N          -1.514604        6.429163        1.154736
