94
 generated by VMD
 C          -9.527406      -11.942291        4.075175
 H         -10.278595      -11.780883        3.294766
 H          -9.672063      -12.953012        4.471417
 H          -9.720238      -11.229876        4.884593
 C          -8.113538      -11.775146        3.512864
 H          -7.980892      -12.515113        2.713427
 C          -7.085697      -12.064324        4.607756
 H          -7.128652      -11.311107        5.401690
 H          -7.267871      -13.044348        5.062072
 H          -6.068302      -12.079463        4.205626
 C          -7.953853      -10.365803        2.912898
 H          -8.067881       -9.611945        3.702394
 H          -8.766071      -10.193653        2.194762
 C          -6.614646      -10.154538        2.197328
 H          -6.477327      -10.951985        1.459477
 H          -5.790583      -10.221750        2.915741
 C          -6.567465       -8.784956        1.509651
 H          -6.826502       -8.017570        2.250671
 H          -7.338861       -8.741498        0.730112
 C          -5.190506       -8.441062        0.898871
 H          -4.433854       -8.527504        1.689534
 C          -4.816449       -9.408415       -0.228295
 H          -3.826750       -9.184285       -0.636698
 H          -4.774868      -10.441753        0.128163
 H          -5.541701       -9.359886       -1.047374
 C          -5.210519       -6.975700        0.409168
 H          -5.568654       -6.336823        1.226806
 H          -5.931615       -6.868869       -0.411339
 C          -3.841192       -6.456695       -0.046249
 H          -3.515564       -7.014641       -0.928574
 H          -3.102529       -6.625933        0.745921
 C          -3.901209       -4.961378       -0.381282
 H          -4.329350       -4.430615        0.478919
 H          -4.589678       -4.803904       -1.221430
 C          -2.525202       -4.340372       -0.710756
 H          -1.846794       -4.546740        0.127288
 C          -1.918902       -4.950831       -1.978038
 H          -0.932171       -4.530305       -2.192657
 H          -1.776643       -6.030420       -1.874273
 H          -2.560654       -4.774035       -2.847599
 C          -2.683299       -2.808670       -0.837038
 H          -3.328617       -2.572604       -1.692877
 H          -3.197640       -2.432199        0.056703
 C          -1.354299       -2.059604       -0.979862
 H          -0.679333       -2.350741       -0.166212
 H          -0.867010       -2.329724       -1.922865
 C          -1.567915       -0.542623       -0.950774
 H          -2.040486       -0.256760       -0.003453
 H          -2.256296       -0.267114       -1.756956
 C          -0.240966        0.206799       -1.108983
 H           0.193605       -0.023204       -2.090196
 H           0.462541       -0.173985       -0.357274
 C          -0.367597        1.736580       -0.940978
 H          -0.838930        1.939605        0.036889
 C          -1.246040        2.354766       -2.032753
 H          -2.257594        1.938804       -2.015492
 H          -1.355175        3.434531       -1.896249
 H          -0.822398        2.178908       -3.027147
 C           1.045021        2.362584       -0.924247
 H           1.661773        1.815315       -0.199825
 H           1.521938        2.238694       -1.904509
 C           1.047853        3.845764       -0.534004
 H           0.531011        4.427009       -1.302753
 H           0.489028        3.971576        0.414592
 C           2.476697        4.373552       -0.363685
 H           3.009316        3.713283        0.332909
 H           3.005472        4.309599       -1.323269
 C           2.544758        5.819774        0.175674
 H           1.973247        5.863302        1.111983
 C           1.927481        6.818978       -0.807561
 H           0.876364        6.589582       -1.005163
 H           1.949979        7.837842       -0.410083
 H           2.462387        6.814537       -1.763115
 C           4.016048        6.168719        0.492677
 H           4.435350        5.381792        1.133008
 H           4.604486        6.166239       -0.433788
 C           4.192539        7.515012        1.204745
 H           3.893468        8.334050        0.542210
 H           3.538364        7.542815        2.082822
 C           5.650278        7.727087        1.628952
 H           5.936573        6.950270        2.349501
 H           6.294352        7.592969        0.750183
 C           5.917617        9.118984        2.231304
 H           5.611698        9.881798        1.504128
 C           5.140192        9.354366        3.527096
 H           4.060848        9.364320        3.348295
 H           5.403408       10.322342        3.967278
 H           5.357245        8.576835        4.267259
 C           7.416299        9.293174        2.489525
 H           7.987927        9.170485        1.563475
 H           7.630323       10.293012        2.881940
 H           7.782901        8.558576        3.214669
 C          -0.876493        3.202288        2.136208
 N          -1.349978        3.030280        3.131751
