94
 generated by VMD
 C          -9.502755      -12.166507        3.952712
 H         -10.265268      -11.974634        3.190384
 H          -9.640988      -13.192606        4.309790
 H          -9.684331      -11.487638        4.792964
 C          -8.097300      -11.975032        3.377240
 H          -7.975837      -12.681877        2.546670
 C          -7.053429      -12.307004        4.444474
 H          -7.085310      -11.586605        5.268795
 H          -7.228285      -13.304857        4.861301
 H          -6.041995      -12.304543        4.027299
 C          -7.947142      -10.542377        2.832585
 H          -8.049849       -9.821175        3.653494
 H          -8.769930      -10.342191        2.133999
 C          -6.618736      -10.301060        2.106490
 H          -6.491989      -11.068101        1.335302
 H          -5.784078      -10.396159        2.809378
 C          -6.582395       -8.904940        1.473817
 H          -6.829555       -8.168078        2.249070
 H          -7.366137       -8.830652        0.709030
 C          -5.215400       -8.536021        0.855318
 H          -4.446076       -8.653451        1.629609
 C          -4.859416       -9.457254       -0.315483
 H          -3.875928       -9.216963       -0.729656
 H          -4.812956      -10.504114       -0.001675
 H          -5.597156       -9.375704       -1.120676
 C          -5.243566       -7.052223        0.425259
 H          -5.584620       -6.446644        1.274908
 H          -5.980995       -6.912519       -0.375593
 C          -3.883416       -6.515402       -0.036891
 H          -3.576596       -7.037481       -0.947411
 H          -3.128684       -6.716235        0.732429
 C          -3.949376       -5.007886       -0.310228
 H          -4.355471       -4.511950        0.580895
 H          -4.658147       -4.816506       -1.126119
 C          -2.581168       -4.374633       -0.648740
 H          -1.881896       -4.615538        0.162502
 C          -2.008215       -4.932698       -1.955073
 H          -1.026269       -4.504688       -2.176790
 H          -1.865592       -6.015800       -1.899736
 H          -2.671223       -4.719350       -2.800133
 C          -2.740583       -2.839001       -0.707543
 H          -3.411630       -2.568074       -1.532729
 H          -3.226805       -2.499533        0.216259
 C          -1.415939       -2.084383       -0.860946
 H          -0.714704       -2.410875       -0.083759
 H          -0.960731       -2.312795       -1.830662
 C          -1.626646       -0.570107       -0.758079
 H          -2.065457       -0.326298        0.216795
 H          -2.342586       -0.260049       -1.526825
 C          -0.305231        0.186179       -0.929955
 H           0.091871        0.001442       -1.936332
 H           0.425328       -0.228924       -0.223519
 C          -0.421487        1.707717       -0.686956
 H          -0.856338        1.860702        0.308933
 C          -1.337482        2.376028       -1.716437
 H          -2.344397        1.949332       -1.694313
 H          -1.453155        3.444988       -1.514510
 H          -0.941312        2.261338       -2.730854
 C           0.994897        2.325032       -0.694496
 H           1.617821        1.778628        0.025539
 H           1.455230        2.179829       -1.680314
 C           1.031170        3.815907       -0.336163
 H           0.513951        4.387333       -1.111917
 H           0.501270        3.983473        0.609458
 C           2.476435        4.314610       -0.211757
 H           3.001013        3.673999        0.508953
 H           2.989581        4.189608       -1.173902
 C           2.593368        5.783101        0.253212
 H           2.026648        5.893452        1.186486
 C           2.009412        6.750619       -0.780874
 H           0.955189        6.538964       -0.980025
 H           2.054409        7.785701       -0.429767
 H           2.552675        6.689198       -1.729761
 C           4.076220        6.098985        0.551071
 H           4.470176        5.333766        1.232475
 H           4.662494        6.027241       -0.374012
 C           4.299167        7.474653        1.190241
 H           4.024054        8.266768        0.485904
 H           3.649811        7.570168        2.067147
 C           5.764913        7.660917        1.598884
 H           6.029507        6.912981        2.357283
 H           6.400202        7.461389        0.726144
 C           6.079862        9.072272        2.128532
 H           5.794239        9.806712        1.364826
 C           5.317826        9.397665        3.413942
 H           4.238304        9.432745        3.239495
 H           5.613988       10.377886        3.803150
 H           5.514687        8.652213        4.191795
 C           7.584803        9.211185        2.371531
 H           8.147024        9.023686        1.450587
 H           7.832731       10.222188        2.711965
 H           7.931991        8.502769        3.131449
 C          -1.264455        6.328722        1.867791
 N          -1.738770        6.237180        0.862240
