94
 generated by VMD
 C          -9.502560      -11.921566        4.106258
 H         -10.257435      -11.764345        3.328554
 H          -9.644423      -12.930645        4.507644
 H          -9.692427      -11.205730        4.913355
 C          -8.091431      -11.755529        3.536787
 H          -7.961700      -12.498778        2.739923
 C          -7.058309      -12.038983        4.628202
 H          -7.098436      -11.282434        5.419112
 H          -7.237376      -13.017251        5.087505
 H          -6.042737      -12.054780        4.221508
 C          -7.935923      -10.348610        2.930114
 H          -8.047052       -9.591546        3.716956
 H          -8.751622      -10.180268        2.215029
 C          -6.600279      -10.139016        2.207470
 H          -6.465725      -10.939110        1.471974
 H          -5.772788      -10.202816        2.922241
 C          -6.557562       -8.771996        1.514479
 H          -6.813956       -8.002115        2.253833
 H          -7.332506       -8.732114        0.738287
 C          -5.183701       -8.429190        0.896284
 H          -4.423374       -8.512611        1.683743
 C          -4.814182       -9.399843       -0.229522
 H          -3.826660       -9.176138       -0.643398
 H          -4.770020      -10.431987        0.130075
 H          -5.543392       -9.354564       -1.045266
 C          -5.206932       -6.965463        0.401969
 H          -5.562654       -6.324341        1.218901
 H          -5.931070       -6.861803       -0.416258
 C          -3.839626       -6.446820       -0.059795
 H          -3.516708       -7.006701       -0.941903
 H          -3.098076       -6.613715        0.730186
 C          -3.901670       -4.952363       -0.398172
 H          -4.328960       -4.420106        0.461522
 H          -4.591487       -4.797318       -1.237656
 C          -2.526588       -4.331122       -0.730759
 H          -1.846755       -4.536273        0.106444
 C          -1.922145       -4.942830       -1.998304
 H          -0.936507       -4.521230       -2.215813
 H          -1.778381       -6.022084       -1.892972
 H          -2.565995       -4.768392       -2.866797
 C          -2.685318       -2.799674       -0.858762
 H          -3.327486       -2.564306       -1.717139
 H          -3.203097       -2.422865        0.032853
 C          -1.355870       -2.050434       -0.996505
 H          -0.684109       -2.342116       -0.180383
 H          -0.864847       -2.320049       -1.937718
 C          -1.569641       -0.533409       -0.966877
 H          -2.053205       -0.250321       -0.024578
 H          -2.249082       -0.256383       -1.780158
 C          -0.241033        0.215644       -1.109132
 H           0.201584       -0.009406       -2.087865
 H           0.455886       -0.168821       -0.353322
 C          -0.364320        1.745205       -0.935033
 H          -0.873256        1.959606        0.137229
 C          -1.250787        2.375034       -2.013187
 H          -2.261594        1.957741       -1.992698
 H          -1.359732        3.452809       -1.862472
 H          -0.833210        2.210663       -3.011976
 C           1.047897        2.371544       -0.909237
 H           1.657757        1.824198       -0.179203
 H           1.530563        2.242900       -1.886078
 C           1.052407        3.856078       -0.525468
 H           0.545133        4.434589       -1.302656
 H           0.493434        3.992481        0.409517
 C           2.483080        4.378259       -0.350165
 H           3.009363        3.718351        0.351604
 H           3.016234        4.308047       -1.306925
 C           2.555955        5.826252        0.183852
 H           1.982047        5.875673        1.118404
 C           1.945789        6.824450       -0.804768
 H           0.894013        6.599207       -1.003735
 H           1.972407        7.844802       -0.411381
 H           2.482737        6.813497       -1.759124
 C           4.027969        6.169796        0.503473
 H           4.442930        5.382008        1.145573
 H           4.618257        6.163866       -0.421799
 C           4.208425        7.516114        1.214526
 H           3.912839        8.335682        0.551094
 H           3.553517        7.546863        2.091948
 C           5.666565        7.723198        1.639956
 H           5.949973        6.944842        2.359989
 H           6.310709        7.587732        0.761447
 C           5.938136        9.113653        2.243723
 H           5.634299        9.878193        1.517498
 C           5.161831        9.349823        3.540048
 H           4.082454        9.362936        3.361702
 H           5.427907       10.316609        3.981134
 H           5.377045        8.570945        4.279335
 C           7.437405        9.283092        2.501822
 H           8.008479        9.159850        1.575503
 H           7.654486       10.281807        2.895424
 H           7.801991        8.546518        3.225983
 C          -1.378313        2.539251        1.878558
 N          -1.670392        2.880638        2.901596
