94
 generated by VMD
 C          -9.593892      -12.087415        3.909528
 H         -10.330669      -11.921720        3.116386
 H          -9.743421      -13.101400        4.295397
 H          -9.803541      -11.381523        4.720494
 C          -8.170177      -11.912604        3.375240
 H          -8.020402      -12.645802        2.572605
 C          -7.162370      -12.207683        4.487045
 H          -7.221338      -11.459976        5.285151
 H          -7.351256      -13.191100        4.931133
 H          -6.137635      -12.218483        4.103810
 C          -8.003498      -10.498261        2.789536
 H          -8.138052       -9.750984        3.582090
 H          -8.800659      -10.323869        2.055219
 C          -6.649940      -10.275746        2.105303
 H          -6.492966      -11.065905        1.363497
 H          -5.841591      -10.345873        2.841061
 C          -6.594207       -8.899946        1.431279
 H          -6.877406       -8.141014        2.172171
 H          -7.345635       -8.854473        0.632582
 C          -5.204450       -8.541286        0.859640
 H          -4.467876       -8.629958        1.668795
 C          -4.794436       -9.495239       -0.266329
 H          -3.796057       -9.260296       -0.646620
 H          -4.754995      -10.531610        0.081551
 H          -5.498404       -9.443919       -1.103602
 C          -5.222965       -7.071601        0.383599
 H          -5.607774       -6.443567        1.197525
 H          -5.922964       -6.962293       -0.454670
 C          -3.846554       -6.537221       -0.030359
 H          -3.494030       -7.082520       -0.910247
 H          -3.127016       -6.709650        0.778548
 C          -3.911006       -5.038662       -0.349439
 H          -4.363982       -4.521546        0.506365
 H          -4.580690       -4.876945       -1.203849
 C          -2.533192       -4.402441       -0.639062
 H          -1.871744       -4.615211        0.210863
 C          -1.893900       -4.990092       -1.900808
 H          -0.904538       -4.561391       -2.085161
 H          -1.748337       -6.070429       -1.810391
 H          -2.515756       -4.802940       -2.782552
 C          -2.701755       -2.870444       -0.746359
 H          -3.338837       -2.627584       -1.606508
 H          -3.229900       -2.510849        0.146320
 C          -1.377540       -2.108784       -0.863568
 H          -0.706754       -2.410246       -0.050213
 H          -0.881037       -2.357362       -1.807734
 C          -1.603276       -0.594274       -0.807134
 H          -2.079537       -0.329952        0.144553
 H          -2.292722       -0.309592       -1.609225
 C          -0.282177        0.168553       -0.950449
 H           0.149793       -0.034594       -1.938775
 H           0.427156       -0.225374       -0.211052
 C          -0.417062        1.694064       -0.744854
 H          -0.883460        1.865194        0.233503
 C          -1.306340        2.331570       -1.816489
 H          -2.311296        1.899634       -1.812172
 H          -1.433302        3.404537       -1.645315
 H          -0.880843        2.193686       -2.816036
 C           0.994336        2.322548       -0.723704
 H           1.602682        1.791161        0.019626
 H           1.481272        2.167993       -1.695203
 C           1.010197        3.817948       -0.383137
 H           0.497384        4.374938       -1.172334
 H           0.465243        3.991428        0.554291
 C           2.448591        4.334201       -0.248603
 H           2.979488        3.697175        0.470646
 H           2.966288        4.220572       -1.209762
 C           2.547796        5.801278        0.224905
 H           2.006761        5.890872        1.175009
 C           1.911799        6.765260       -0.781054
 H           0.851489        6.543545       -0.933094
 H           1.961775        7.800404       -0.431174
 H           2.414061        6.709834       -1.752609
 C           4.031128        6.147270        0.484005
 H           4.465477        5.377020        1.134481
 H           4.589631        6.112460       -0.460129
 C           4.238462        7.512732        1.149971
 H           3.917040        8.314111        0.476465
 H           3.617673        7.567957        2.050699
 C           5.711766        7.731053        1.512875
 H           6.024988        6.970355        2.239379
 H           6.320944        7.575603        0.613006
 C           6.003152        9.135913        2.072498
 H           5.663611        9.882655        1.343585
 C           5.283716        9.397882        3.396437
 H           4.197416        9.401225        3.266268
 H           5.563146       10.375937        3.803051
 H           5.536437        8.637383        4.142977
 C           7.511423        9.317632        2.260003
 H           8.041552        9.176579        1.312134
 H           7.740161       10.325858        2.621484
 H           7.911848        8.599009        2.983247
 C          -1.135630        5.507709        2.205540
 N          -0.547816        5.969055        3.033597
