94
 generated by VMD
 C          -9.637491      -11.818442        3.991308
 H         -10.345456      -11.674596        3.168211
 H          -9.804127      -12.820213        4.401393
 H          -9.873019      -11.088358        4.773207
 C          -8.195283      -11.663220        3.502317
 H          -8.020576      -12.420528        2.727569
 C          -7.227917      -11.927952        4.656812
 H          -7.313324      -11.157931        5.430942
 H          -7.434580      -12.898168        5.121586
 H          -6.190380      -11.950769        4.310363
 C          -8.002406      -10.267312        2.881076
 H          -8.157069       -9.496235        3.646651
 H          -8.775432      -10.111102        2.117472
 C          -6.627111      -10.071819        2.232541
 H          -6.451609      -10.886813        1.522501
 H          -5.841989      -10.120811        2.994695
 C          -6.543813       -8.719310        1.515167
 H          -6.837734       -7.933888        2.223591
 H          -7.276200       -8.694813        0.698056
 C          -5.138552       -8.389992        0.963364
 H          -4.421604       -8.450901        1.792428
 C          -4.708035       -9.389145       -0.114916
 H          -3.698968       -9.175609       -0.479193
 H          -4.683791      -10.411608        0.273047
 H          -5.391152       -9.365664       -0.970479
 C          -5.137235       -6.939532        0.430446
 H          -5.526296       -6.276798        1.214299
 H          -5.826220       -6.857494       -0.420016
 C          -3.751555       -6.433172        0.011600
 H          -3.392010       -7.020585       -0.837675
 H          -3.043758       -6.572899        0.836918
 C          -3.801005       -4.950754       -0.377766
 H          -4.250838       -4.389592        0.451562
 H          -4.467836       -4.823840       -1.240286
 C          -2.417480       -4.340059       -0.695787
 H          -1.760598       -4.509505        0.167264
 C          -1.776624       -5.000077       -1.920618
 H          -0.784357       -4.587394       -2.124785
 H          -1.636057       -6.074315       -1.769779
 H          -2.394484       -4.859499       -2.813713
 C          -2.577425       -2.815194       -0.887900
 H          -3.221141       -2.618295       -1.754845
 H          -3.095754       -2.402512       -0.012592
 C          -1.251491       -2.067517       -1.061602
 H          -0.575133       -2.319726       -0.236242
 H          -0.763456       -2.376198       -1.992333
 C          -1.471906       -0.551363       -1.099217
 H          -1.931898       -0.224815       -0.159077
 H          -2.175960       -0.316776       -1.906512
 C          -0.152703        0.194600       -1.325125
 H           0.252397       -0.078339       -2.307578
 H           0.570904       -0.149486       -0.575479
 C          -0.237252        1.705888       -1.244873
 H          -0.906546        1.853509        1.165046
 C          -1.396968        2.397326       -1.902346
 H          -2.348114        1.943364       -1.611586
 H          -1.461146        3.447878       -1.608970
 H          -1.302145        2.345904       -2.991105
 C           1.098096        2.421274       -1.195883
 H           1.782599        1.834183       -0.570809
 H           1.524777        2.433086       -2.206540
 C           1.051166        3.851728       -0.645351
 H           0.465628        4.481054       -1.322606
 H           0.552153        3.861418        0.330316
 C           2.462843        4.435371       -0.506202
 H           3.068993        3.739527        0.088332
 H           2.931634        4.492155       -1.496981
 C           2.501286        5.824912        0.168733
 H           2.004002        5.745519        1.144147
 C           1.760032        6.877690       -0.661058
 H           0.708214        6.611033       -0.799379
 H           1.766276        7.853939       -0.167685
 H           2.215178        6.993167       -1.650328
 C           3.974546        6.224241        0.408870
 H           4.480971        5.404927        0.935626
 H           4.486866        6.341763       -0.554604
 C           4.142982        7.505280        1.234335
 H           3.747759        8.364513        0.682265
 H           3.565677        7.411857        2.160394
 C           5.619355        7.761336        1.558438
 H           6.005331        6.938398        2.173633
 H           6.191294        7.747989        0.621589
 C           5.867375        9.103963        2.270813
 H           5.459710        9.912185        1.650377
 C           5.196716        9.169978        3.643601
 H           4.106753        9.130560        3.557258
 H           5.446640       10.107054        4.152946
 H           5.519440        8.341713        4.283438
 C           7.372157        9.342070        2.419440
 H           7.865175        9.340894        1.441540
 H           7.568595       10.311705        2.889231
 H           7.838630        8.565878        3.035756
 C          -1.087331        1.839247        2.068501
 N          -1.314730        1.821000        3.205998
