94
 generated by VMD
 C          -9.543858      -11.975698        4.041938
 H         -10.290348      -11.820824        3.255718
 H          -9.687615      -12.984944        4.442238
 H          -9.744630      -11.259962        4.846482
 C          -8.126840      -11.806333        3.488291
 H          -7.986217      -12.549769        2.693449
 C          -7.105356      -12.086421        4.591463
 H          -7.156425      -11.329546        5.381431
 H          -7.287003      -13.064910        5.049279
 H          -6.085219      -12.099741        4.196274
 C          -7.968096      -10.399435        2.882392
 H          -8.090211       -9.642079        3.667327
 H          -8.775990      -10.233775        2.157884
 C          -6.624797      -10.186881        2.174946
 H          -6.479526      -10.987401        1.441951
 H          -5.805445      -10.247580        2.899301
 C          -6.577842       -8.820539        1.480903
 H          -6.845061       -8.050544        2.216296
 H          -7.343762       -8.783754        0.695647
 C          -5.197787       -8.474505        0.878454
 H          -4.446632       -8.554315        1.675037
 C          -4.811919       -9.445799       -0.241282
 H          -3.820445       -9.219390       -0.644070
 H          -4.768406      -10.477167        0.120633
 H          -5.531763       -9.404426       -1.065509
 C          -5.219633       -7.011679        0.381454
 H          -5.587590       -6.370445        1.192867
 H          -5.933884       -6.911717       -0.445863
 C          -3.848418       -6.489140       -0.064122
 H          -3.512679       -7.049032       -0.941451
 H          -3.116158       -6.652519        0.735196
 C          -3.911372       -4.995292       -0.405114
 H          -4.351774       -4.463600        0.448290
 H          -4.590725       -4.843691       -1.253700
 C          -2.534300       -4.369462       -0.720344
 H          -1.864659       -4.571688        0.125721
 C          -1.911417       -4.979862       -1.979540
 H          -0.924629       -4.554764       -2.184691
 H          -1.765097       -6.058515       -1.871500
 H          -2.544683       -4.808403       -2.856364
 C          -2.696615       -2.838645       -0.851403
 H          -3.327842       -2.605952       -1.718561
 H          -3.227749       -2.463181        0.032893
 C          -1.368006       -2.084870       -0.971437
 H          -0.706099       -2.374508       -0.146588
 H          -0.863678       -2.352636       -1.906130
 C          -1.587235       -0.568589       -0.944387
 H          -2.084255       -0.286594       -0.008504
 H          -2.256239       -0.293303       -1.766779
 C          -0.258977        0.185450       -1.066717
 H           0.200167       -0.038943       -2.037992
 H           0.426824       -0.197086       -0.299653
 C          -0.393689        1.714813       -0.894222
 H          -0.896715        1.907627        0.062103
 C          -1.237724        2.335650       -2.011433
 H          -2.244877        1.909587       -2.036579
 H          -1.363383        3.412645       -1.867301
 H          -0.775808        2.174850       -2.991234
 C           1.018098        2.339499       -0.832156
 H           1.607636        1.800709       -0.079132
 H           1.528656        2.197163       -1.793081
 C           1.022494        3.829275       -0.468405
 H           0.508706        4.399204       -1.247492
 H           0.460611        3.979337        0.486363
 C           2.454503        4.354389       -0.308330
 H           2.983044        3.706711        0.403063
 H           2.983283        4.265725       -1.266014
 C           2.533190        5.812212        0.197321
 H           1.968469        5.880874        1.135860
 C           1.915089        6.792312       -0.804295
 H           0.860646        6.566086       -0.987398
 H           1.948468        7.820192       -0.431595
 H           2.441769        6.761055       -1.763899
 C           4.008256        6.160298        0.497493
 H           4.429178        5.382769        1.148160
 H           4.589873        6.139640       -0.433035
 C           4.195155        7.517642        1.185606
 H           3.893154        8.326694        0.512245
 H           3.548489        7.562144        2.068545
 C           5.657155        7.731450        1.594096
 H           5.947462        6.964463        2.323527
 H           6.293068        7.582347        0.711811
 C           5.933969        9.131190        2.173546
 H           5.622600        9.884280        1.438598
 C           5.170338        9.387114        3.473650
 H           4.089245        9.396941        3.305802
 H           5.440168       10.360751        3.897031
 H           5.393321        8.619905        4.222776
 C           7.435610        9.305200        2.414209
 H           7.997618        9.167734        1.484355
 H           7.656011       10.310026        2.790010
 H           7.807693        8.580167        3.146164
 C          -0.562488        4.026872        2.435668
 N          -1.063350        4.027002        3.432730
