94
 generated by VMD
 C          -9.666307      -11.821314        3.951380
 H         -10.371352      -11.663468        3.128340
 H          -9.841363      -12.826003        4.350637
 H          -9.897938      -11.097627        4.740356
 C          -8.221972      -11.672020        3.467125
 H          -8.051262      -12.422633        2.684990
 C          -7.258968      -11.955809        4.620700
 H          -7.339501      -11.192607        5.402068
 H          -7.474379      -12.928762        5.075616
 H          -6.221000      -11.983730        4.275856
 C          -8.017224      -10.271532        2.860442
 H          -8.169676       -9.506754        3.632776
 H          -8.786061      -10.102630        2.095284
 C          -6.637846      -10.079655        2.219788
 H          -6.463346      -10.891059        1.505411
 H          -5.856740      -10.137628        2.985444
 C          -6.543908       -8.723524        1.511242
 H          -6.839329       -7.940850        2.222105
 H          -7.270733       -8.691298        0.689403
 C          -5.133749       -8.396686        0.970693
 H          -4.423221       -8.460216        1.805098
 C          -4.696761       -9.394794       -0.105881
 H          -3.684683       -9.182137       -0.462232
 H          -4.676836      -10.417913        0.280646
 H          -5.373446       -9.368979       -0.966475
 C          -5.126921       -6.945561        0.440337
 H          -5.519661       -6.283747        1.223148
 H          -5.811169       -6.861368       -0.413783
 C          -3.738889       -6.439183        0.029814
 H          -3.373767       -7.026446       -0.817140
 H          -3.035922       -6.578113        0.859382
 C          -3.788562       -4.956863       -0.359775
 H          -4.242135       -4.396468        0.468055
 H          -4.452677       -4.830881       -1.224551
 C          -2.405370       -4.343637       -0.673185
 H          -1.750928       -4.511653        0.191999
 C          -1.759091       -5.002096       -1.895929
 H          -0.766447       -4.588153       -2.095788
 H          -1.617977       -6.076267       -1.745364
 H          -2.373525       -4.861419       -2.791372
 C          -2.568478       -2.819191       -0.865690
 H          -3.213010       -2.623711       -1.732392
 H          -3.087268       -2.407324        0.009740
 C          -1.244285       -2.069054       -1.040657
 H          -0.565184       -2.322056       -0.217868
 H          -0.758565       -2.374846       -1.973551
 C          -1.467472       -0.553388       -1.074238
 H          -1.921429       -0.229105       -0.130366
 H          -2.177496       -0.318647       -1.876258
 C          -0.151199        0.195234       -1.307744
 H           0.249139       -0.077450       -2.292211
 H           0.577298       -0.146591       -0.561759
 C          -0.239548        1.706080       -1.228209
 H          -0.906597        1.849083        1.221940
 C          -1.408505        2.394053       -1.872406
 H          -2.355022        1.939332       -1.568038
 H          -1.470935        3.445328       -1.581389
 H          -1.327683        2.339778       -2.962120
 C           1.092956        2.426486       -1.189363
 H           1.787339        1.838079       -0.576458
 H           1.508086        2.447458       -2.204649
 C           1.045689        3.852661       -0.627816
 H           0.447848        4.484276       -1.291971
 H           0.560095        3.852240        0.354651
 C           2.456325        4.441704       -0.503922
 H           3.072467        3.745614        0.079901
 H           2.912451        4.504435       -1.500257
 C           2.498338        5.828358        0.176246
 H           2.012167        5.743898        1.156771
 C           1.745587        6.883174       -0.640584
 H           0.693434        6.613764       -0.770600
 H           1.753003        7.856582       -0.141522
 H           2.191049        7.006052       -1.633319
 C           3.973397        6.229278        0.401728
 H           4.485226        5.411507        0.925804
 H           4.476485        6.344714       -0.566798
 C           4.148562        7.512696        1.221493
 H           3.751578        8.370330        0.668052
 H           3.576410        7.423905        2.151161
 C           5.626973        7.767813        1.536352
 H           6.012270        6.951387        2.160751
 H           6.195769        7.740662        0.597951
 C           5.881408        9.118708        2.230392
 H           5.479119        9.920150        1.597610
 C           5.208185        9.208054        3.600534
 H           4.118210        9.173453        3.512091
 H           5.462109       10.150844        4.097091
 H           5.524740        8.387044        4.252726
 C           7.387072        9.351138        2.378020
 H           7.881823        9.332191        1.401184
 H           7.587684       10.326909        2.833089
 H           7.848404        8.582184        3.007205
 C          -1.069201        1.833412        2.104713
 N          -1.279096        1.812936        3.245489
