94
 generated by VMD
 C          -9.529872      -11.942837        4.071503
 H         -10.279990      -11.779106        3.290542
 H          -9.676312      -12.954017        4.465890
 H          -9.722633      -11.231492        4.881876
 C          -8.115188      -11.776615        3.510988
 H          -7.982679      -12.515334        2.710374
 C          -7.088846      -12.069024        4.606411
 H          -7.131927      -11.317370        5.401819
 H          -7.272526      -13.049776        5.058539
 H          -6.071021      -12.084357        4.205375
 C          -7.953111      -10.366428        2.913736
 H          -8.066545       -9.613832        3.704521
 H          -8.764655      -10.191830        2.195426
 C          -6.613229      -10.155723        2.199303
 H          -6.476463      -10.952231        1.460340
 H          -5.789611      -10.224926        2.918037
 C          -6.564343       -8.785201        1.513700
 H          -6.822256       -8.018577        2.255909
 H          -7.335874       -8.739597        0.734413
 C          -5.187197       -8.442014        0.903012
 H          -4.430494       -8.529408        1.693515
 C          -4.813950       -9.408916       -0.224805
 H          -3.824166       -9.185194       -0.633218
 H          -4.772916      -10.442500        0.130988
 H          -5.539311       -9.359395       -1.043725
 C          -5.206528       -6.976368        0.414179
 H          -5.563090       -6.337663        1.232650
 H          -5.928672       -6.868523       -0.405279
 C          -3.837487       -6.458091       -0.042872
 H          -3.513074       -7.016371       -0.925424
 H          -3.098011       -6.627340        0.748526
 C          -3.897520       -4.962915       -0.378348
 H          -4.324068       -4.431711        0.482381
 H          -4.587365       -4.805548       -1.217384
 C          -2.522017       -4.342256       -0.710500
 H          -1.842334       -4.547691        0.126732
 C          -1.917547       -4.953951       -1.978052
 H          -0.931450       -4.533113       -2.194972
 H          -1.774502       -6.033331       -1.873103
 H          -2.560934       -4.778694       -2.846715
 C          -2.680784       -2.810745       -0.838118
 H          -3.327198       -2.575760       -1.693427
 H          -3.194274       -2.433672        0.055868
 C          -1.352401       -2.061045       -0.983092
 H          -0.676336       -2.351093       -0.169971
 H          -0.866006       -2.331613       -1.926428
 C          -1.567178       -0.544170       -0.954878
 H          -2.040601       -0.258291       -0.007985
 H          -2.255310       -0.269506       -1.761559
 C          -0.240728        0.206296       -1.112280
 H           0.194719       -0.023232       -2.093215
 H           0.462459       -0.174054       -0.360062
 C          -0.368725        1.735985       -0.944021
 H          -0.842464        1.938109        0.031322
 C          -1.244555        2.353771       -2.038136
 H          -2.255583        1.936418       -2.024491
 H          -1.355546        3.433294       -1.901159
 H          -0.817471        2.179213       -3.031291
 C           1.043530        2.362665       -0.924090
 H           1.659449        1.814952       -0.199302
 H           1.522069        2.240047       -1.903732
 C           1.045427        3.845430       -0.532279
 H           0.527630        4.427405       -1.299878
 H           0.485197        3.969991        0.419176
 C           2.473949        4.374073       -0.362009
 H           3.008518        3.711707        0.331083
 H           3.001032        4.314314       -1.322803
 C           2.541998        5.818221        0.182892
 H           1.975626        5.856660        1.122537
 C           1.917205        6.820321       -0.792550
 H           0.865196        6.590049       -0.984358
 H           1.940568        7.837645       -0.391209
 H           2.446101        6.820405       -1.751452
 C           4.014393        6.168595        0.493229
 H           4.438584        5.379841        1.128069
 H           4.597725        6.170775       -0.436470
 C           4.192770        7.512354        1.209615
 H           3.888584        8.333506        0.552047
 H           3.543679        7.535649        2.091587
 C           5.652665        7.724951        1.626171
 H           5.944113        6.946021        2.342363
 H           6.291826        7.594679        0.743247
 C           5.921874        9.115108        2.231673
 H           5.611328        9.879986        1.508642
 C           5.151246        9.345556        3.532383
 H           4.070937        9.354859        3.359483
 H           5.415806       10.312458        3.974127
 H           5.373203        8.565983        4.268930
 C           7.421765        9.289922        2.482419
 H           7.988581        9.170617        1.552976
 H           7.636941       10.288753        2.876772
 H           7.792909        8.553452        3.203348
 C          -0.868540        3.299043        2.128453
 N          -1.439108        3.083512        3.062732
