94
 generated by VMD
 C          -9.552606      -11.989765        4.022855
 H         -10.296726      -11.835675        3.234238
 H          -9.696690      -12.999100        4.422807
 H          -9.756617      -11.274121        4.826669
 C          -8.133994      -11.819112        3.473705
 H          -7.990147      -12.562447        2.679343
 C          -7.115748      -12.098164        4.580125
 H          -7.170001      -11.341255        5.369853
 H          -7.297943      -13.076770        5.037467
 H          -6.094357      -12.110580        4.188158
 C          -7.974688      -10.412089        2.868283
 H          -8.099825       -9.654853        3.652863
 H          -8.780555      -10.247128        2.141367
 C          -6.629488      -10.198297        2.164852
 H          -6.481380      -10.998541        1.432117
 H          -5.812210      -10.258434        2.891582
 C          -6.581752       -8.831767        1.471250
 H          -6.851735       -8.062181        2.206073
 H          -7.345463       -8.795453        0.683838
 C          -5.200310       -8.484371        0.872831
 H          -4.451325       -8.563849        1.671478
 C          -4.810502       -9.454889       -0.246215
 H          -3.818044       -9.227538       -0.646060
 H          -4.767248      -10.486382        0.115366
 H          -5.528010       -9.413709       -1.072477
 C          -5.222052       -7.021389        0.376319
 H          -5.592885       -6.380784        1.186926
 H          -5.934022       -6.921730       -0.452993
 C          -3.850032       -6.497511       -0.065100
 H          -3.511160       -7.056869       -0.941569
 H          -3.120006       -6.660410        0.736359
 C          -3.913354       -5.003669       -0.405959
 H          -4.357142       -4.472623        0.446095
 H          -4.589994       -4.852505       -1.256789
 C          -2.535826       -4.376499       -0.716373
 H          -1.868942       -4.578290        0.131979
 C          -1.908025       -4.986056       -1.973518
 H          -0.921136       -4.559659       -2.175453
 H          -1.760732       -6.064526       -1.865001
 H          -2.538663       -4.815401       -2.852398
 C          -2.699076       -2.845848       -0.847795
 H          -3.326389       -2.613454       -1.717882
 H          -3.234804       -2.471174        0.034045
 C          -1.370582       -2.090814       -0.961019
 H          -0.712445       -2.380270       -0.133081
 H          -0.861393       -2.357622       -1.893337
 C          -1.591406       -0.574773       -0.934173
 H          -2.094271       -0.293991       -0.001053
 H          -2.255781       -0.299484       -1.760305
 C          -0.263160        0.180644       -1.047932
 H           0.201837       -0.042030       -2.016814
 H           0.418535       -0.202289       -0.277414
 C          -0.400436        1.709744       -0.874085
 H          -0.911234        1.900042        0.078238
 C          -1.236501        2.331311       -1.996870
 H          -2.242414        1.902998       -2.031545
 H          -1.365896        3.407644       -1.851154
 H          -0.766031        2.173952       -2.973156
 C           1.010520        2.334976       -0.800553
 H           1.594073        1.797255       -0.042112
 H           1.528675        2.190282       -1.757141
 C           1.014541        3.825723       -0.440105
 H           0.500282        4.393425       -1.220390
 H           0.455374        3.979491        0.513659
 C           2.447665        4.350093       -0.284802
 H           2.974866        3.707892        0.432559
 H           2.976234        4.251180       -1.241631
 C           2.530818        5.812626        0.206270
 H           1.968589        5.892218        1.145251
 C           1.913064        6.784458       -0.803547
 H           0.857246        6.560105       -0.980932
 H           1.951201        7.816041       -0.441722
 H           2.436597        6.741347       -1.764413
 C           4.007416        6.159912        0.499914
 H           4.427975        5.387265        1.156611
 H           4.586869        6.129523       -0.431691
 C           4.199069        7.522886        1.175474
 H           3.897563        8.326673        0.495616
 H           3.554435        7.576794        2.059365
 C           5.662475        7.736688        1.578880
 H           5.952709        6.974993        2.313872
 H           6.296012        7.578940        0.696391
 C           5.943879        9.140414        2.146335
 H           5.633009        9.888256        1.405832
 C           5.183374        9.408891        3.445738
 H           4.102002        9.420319        3.279808
 H           5.456616       10.385166        3.860768
 H           5.405667        8.647126        4.200608
 C           7.446414        9.312533        2.382763
 H           8.006310        9.166098        1.453008
 H           7.670092       10.319795        2.750012
 H           7.818030        8.592492        3.119871
 C          -0.521378        4.183264        2.497646
 N          -0.978422        4.284807        3.510416
