94
 generated by VMD
 C          -9.525578      -11.941147        4.077507
 H         -10.277165      -11.780326        3.297358
 H          -9.669904      -12.951639        4.474443
 H          -9.718122      -11.228249        4.886567
 C          -8.112016      -11.774182        3.514384
 H          -7.979745      -12.514524        2.715236
 C          -7.083520      -12.062726        4.608821
 H          -7.126139      -11.309182        5.402462
 H          -7.265264      -13.042597        5.063627
 H          -6.066350      -12.077859        4.206112
 C          -7.952741      -10.365150        2.913635
 H          -8.066529       -9.610873        3.702765
 H          -8.765258      -10.193469        2.195722
 C          -6.613854      -10.154133        2.197437
 H          -6.476651      -10.951998        1.460018
 H          -5.789480      -10.220707        2.915562
 C          -6.567312       -8.785000        1.508933
 H          -6.826319       -8.017225        2.249557
 H          -7.338979       -8.742242        0.729618
 C          -5.190700       -8.441109        0.897506
 H          -4.433793       -8.526491        1.688051
 C          -4.816466       -9.409285       -0.228893
 H          -3.827068       -9.184937       -0.637899
 H          -4.774085      -10.442263        0.128511
 H          -5.542072       -9.361963       -1.047731
 C          -5.211638       -6.976212        0.406542
 H          -5.569865       -6.336805        1.223718
 H          -5.933014       -6.870475       -0.413870
 C          -3.842697       -6.456990       -0.049595
 H          -3.516804       -7.015774       -0.931281
 H          -3.103909       -6.624918        0.742750
 C          -3.903479       -4.962121       -0.386362
 H          -4.332387       -4.430587        0.472971
 H          -4.591530       -4.805983       -1.227109
 C          -2.527558       -4.340947       -0.715748
 H          -1.849609       -4.546064        0.122987
 C          -1.920312       -4.952800       -1.981900
 H          -0.933870       -4.531807       -2.196883
 H          -1.777266       -6.032127       -1.876444
 H          -2.561966       -4.777849       -2.851914
 C          -2.686115       -2.809483       -0.844085
 H          -3.329556       -2.574615       -1.701665
 H          -3.202617       -2.432234        0.048068
 C          -1.357069       -2.060073       -0.984545
 H          -0.684035       -2.350068       -0.168864
 H          -0.867281       -2.331136       -1.925971
 C          -1.571242       -0.543092       -0.957703
 H          -2.048683       -0.256637       -0.013025
 H          -2.255611       -0.268352       -1.767563
 C          -0.243547        0.206324       -1.109499
 H           0.196327       -0.024471       -2.088154
 H           0.455851       -0.173906       -0.353681
 C          -0.370851        1.736348       -0.943408
 H          -0.850442        1.940182        0.032226
 C          -1.240374        2.354197       -2.042375
 H          -2.251224        1.936288       -2.035215
 H          -1.352775        3.433566       -1.905269
 H          -0.807066        2.180499       -3.032972
 C           1.042096        2.361174       -0.915724
 H           1.650376        1.817385       -0.181533
 H           1.528807        2.229672       -1.890210
 C           1.044808        3.847088       -0.536159
 H           0.537181        4.423619       -1.314556
 H           0.481409        3.982495        0.401694
 C           2.473905        4.372070       -0.358215
 H           3.000416        3.713344        0.344486
 H           3.008783        4.302958       -1.314060
 C           2.542617        5.820199        0.176044
 H           1.968575        5.867813        1.110610
 C           1.929408        6.816759       -0.812356
 H           0.878167        6.588638       -1.010934
 H           1.953235        7.837164       -0.418948
 H           2.466053        6.807314       -1.766888
 C           4.013687        6.167855        0.495753
 H           4.430350        5.381822        1.138914
 H           4.604250        6.162248       -0.429338
 C           4.190822        7.515510        1.205146
 H           3.893205        8.333450        0.540607
 H           3.535827        7.545805        2.082514
 C           5.648468        7.726990        1.630303
 H           5.933521        6.951028        2.352279
 H           6.293111        7.590924        0.752260
 C           5.916688        9.119577        2.230731
 H           5.611482        9.881581        1.502407
 C           5.139195        9.357286        3.526046
 H           4.059887        9.367471        3.347113
 H           5.402853       10.325793        3.964804
 H           5.355840        8.580770        4.267400
 C           7.415413        9.293266        2.489210
 H           7.987345        9.169062        1.563556
 H           7.629838       10.293522        2.880376
 H           7.781363        8.559477        3.215505
 C          -0.970123        3.051924        2.155693
 N          -1.194448        3.194482        3.239187
