94
 generated by VMD
 C          -9.478553      -11.804012        4.210651
 H         -10.237700      -11.658773        3.434776
 H          -9.621847      -12.804574        4.632339
 H          -9.660504      -11.071970        5.004934
 C          -8.070398      -11.654738        3.629293
 H          -7.948612      -12.413777        2.846183
 C          -7.031546      -11.921200        4.719548
 H          -7.063594      -11.149233        5.495792
 H          -7.211656      -12.889585        5.198942
 H          -6.018645      -11.949147        4.306891
 C          -7.913170      -10.260463        2.994548
 H          -8.016479       -9.487884        3.767245
 H          -8.732629      -10.102706        2.281342
 C          -6.581236      -10.070216        2.259797
 H          -6.454497      -10.884650        1.538809
 H          -5.749537      -10.123860        2.970512
 C          -6.537392       -8.716736        1.540836
 H          -6.785724       -7.931979        2.267184
 H          -7.317274       -8.688162        0.769090
 C          -5.166249       -8.391516        0.907319
 H          -4.400897       -8.464176        1.690973
 C          -4.808743       -9.383979       -0.203215
 H          -3.822723       -9.172704       -0.627106
 H          -4.767473      -10.409760        0.174468
 H          -5.542835       -9.349512       -1.015097
 C          -5.186472       -6.936810        0.387034
 H          -5.531426       -6.279420        1.195621
 H          -5.917662       -6.843992       -0.426219
 C          -3.821058       -6.433515       -0.096730
 H          -3.510238       -7.009487       -0.972812
 H          -3.072411       -6.591674        0.688334
 C          -3.878626       -4.944390       -0.458527
 H          -4.291988       -4.395908        0.397780
 H          -4.578094       -4.798666       -1.291671
 C          -2.504340       -4.336825       -0.818392
 H          -1.814391       -4.534454        0.012316
 C          -1.921128       -4.970210       -2.085214
 H          -0.935532       -4.558677       -2.321446
 H          -1.783521       -6.048918       -1.966944
 H          -2.575224       -4.803042       -2.947459
 C          -2.655454       -2.806370       -0.965740
 H          -3.310683       -2.579054       -1.816385
 H          -3.155683       -2.413684       -0.070956
 C          -1.324047       -2.067634       -1.136961
 H          -0.639283       -2.353501       -0.329636
 H          -0.852264       -2.351969       -2.083673
 C          -1.527837       -0.548812       -1.122001
 H          -1.995018       -0.252523       -0.175736
 H          -2.221131       -0.278122       -1.926800
 C          -0.197657        0.189738       -1.304266
 H           0.213489       -0.041275       -2.294940
 H           0.516443       -0.195779       -0.565613
 C          -0.271422        1.706438       -1.148553
 H          -0.900449        1.890065        0.565286
 C          -1.328800        2.424533       -1.955253
 H          -2.312335        1.967583       -1.818088
 H          -1.429632        3.466472       -1.640249
 H          -1.077747        2.402765       -3.019945
 C           1.098120        2.374685       -1.056318
 H           1.704329        1.810817       -0.336140
 H           1.597217        2.288215       -2.029581
 C           1.077409        3.846553       -0.625857
 H           0.576943        4.441284       -1.396409
 H           0.504760        3.957965        0.301860
 C           2.500020        4.379681       -0.415744
 H           3.023869        3.706128        0.274810
 H           3.047074        4.342161       -1.366485
 C           2.549657        5.812952        0.159243
 H           1.964269        5.829681        1.087802
 C           1.939611        6.831504       -0.808459
 H           0.892641        6.600556       -1.025484
 H           1.950625        7.840837       -0.386929
 H           2.487200        6.852653       -1.756575
 C           4.013752        6.163994        0.505984
 H           4.430732        5.362648        1.129741
 H           4.614591        6.191906       -0.412068
 C           4.170146        7.490891        1.258066
 H           3.871638        8.326098        0.615790
 H           3.505634        7.487998        2.128768
 C           5.621097        7.702558        1.705283
 H           5.906499        6.906361        2.404732
 H           6.276000        7.601253        0.830128
 C           5.869303        9.077353        2.353313
 H           5.563504        9.859730        1.647190
 C           5.076964        9.264973        3.647869
 H           3.999387        9.270578        3.458586
 H           5.326667       10.221085        4.120654
 H           5.294131        8.466723        4.365612
 C           7.363665        9.256886        2.632225
 H           7.945637        9.168450        1.708716
 H           7.564439       10.245811        3.057893
 H           7.729851        8.503230        3.337766
 C          -1.314233        2.025296        1.818514
 N          -1.674534        2.143077        2.910479
