94
 generated by VMD
 C          -9.540922      -11.970614        4.048465
 H         -10.288307      -11.815200        3.263198
 H          -9.684662      -12.979897        4.448685
 H          -9.740367      -11.254990        4.853430
 C          -8.124508      -11.801792        3.493107
 H          -7.985216      -12.545106        2.697932
 C          -7.101794      -12.082610        4.594960
 H          -7.151481      -11.325862        5.385126
 H          -7.283368      -13.061097        5.052812
 H          -6.082160      -12.096388        4.198485
 C          -7.965827      -10.394825        2.887333
 H          -8.086724       -9.637584        3.672544
 H          -8.774467      -10.228665        2.163752
 C          -6.623227      -10.182753        2.178421
 H          -6.479074      -10.983255        1.445216
 H          -5.803106      -10.243848        2.901902
 C          -6.576424       -8.816366        1.484459
 H          -6.842709       -8.046317        2.220113
 H          -7.343050       -8.779284        0.699881
 C          -5.196801       -8.470807        0.880755
 H          -4.444971       -8.550797        1.676708
 C          -4.812182       -9.442305       -0.239222
 H          -3.820979       -9.216249       -0.642873
 H          -4.768690      -10.473651        0.122730
 H          -5.532727       -9.400775       -1.062839
 C          -5.218591       -7.008002        0.383719
 H          -5.585474       -6.366579        1.195449
 H          -5.933664       -6.907819       -0.442892
 C          -3.847651       -6.486035       -0.063349
 H          -3.513036       -7.046166       -0.940926
 H          -3.114610       -6.649572        0.735255
 C          -3.910403       -4.992223       -0.404468
 H          -4.349463       -4.460221        0.449423
 H          -4.590827       -4.840464       -1.252194
 C          -2.533514       -4.367004       -0.721680
 H          -1.862870       -4.569233        0.123621
 C          -1.912396       -4.978014       -1.981436
 H          -0.925641       -4.553449       -2.187829
 H          -1.766494       -6.056705       -1.873323
 H          -2.546615       -4.806449       -2.857564
 C          -2.695489       -2.836180       -0.853004
 H          -3.328166       -2.603571       -1.719164
 H          -3.224975       -2.460229        0.032051
 C          -1.366888       -2.082840       -0.975648
 H          -0.703524       -2.372423       -0.151925
 H          -0.864366       -2.350993       -1.911182
 C          -1.585681       -0.566504       -0.948661
 H          -2.080990       -0.284022       -0.012029
 H          -2.256029       -0.291337       -1.770014
 C          -0.257463        0.187132       -1.073668
 H           0.199925       -0.037746       -2.045647
 H           0.429589       -0.195287       -0.307660
 C          -0.391539        1.716535       -0.901478
 H          -0.892403        1.909943        0.055968
 C          -1.237855        2.337201       -2.017035
 H          -2.245321        1.911712       -2.039469
 H          -1.362435        3.414376       -1.873301
 H          -0.778385        2.175500       -2.997836
 C           1.020411        2.341155       -0.842601
 H           1.611609        1.801965       -0.091188
 H           1.528856        2.199682       -1.804746
 C           1.024794        3.830589       -0.477617
 H           0.511441        4.401303       -1.256451
 H           0.461901        3.979378        0.477141
 C           2.456419        4.355851       -0.315571
 H           2.985192        3.706379        0.394011
 H           2.985512        4.270504       -1.273370
 C           2.533652        5.812089        0.194823
 H           1.968342        5.877135        1.133318
 C           1.915127        6.794871       -0.803909
 H           0.860988        6.568241       -0.988276
 H           1.947324        7.821557       -0.427836
 H           2.442311        6.767217       -1.763346
 C           4.008279        6.160433        0.496786
 H           4.429488        5.381262        1.145300
 H           4.590356        6.143043       -0.433519
 C           4.193741        7.515839        1.189085
 H           3.891334        8.326652        0.518033
 H           3.546643        7.557095        2.071863
 C           5.655370        7.729721        1.598873
 H           5.946083        6.960756        2.326050
 H           6.291797        7.583946        0.716403
 C           5.930629        9.127929        2.182772
 H           5.618974        9.882996        1.449982
 C           5.166086        9.379169        3.483256
 H           4.085064        9.388361        3.314914
 H           5.434675       10.351828        3.909671
 H           5.389516        8.609968        4.230199
 C           7.431987        9.302547        2.424784
 H           7.994634        9.168398        1.494831
 H           7.651289       10.306431        2.803750
 H           7.804314        8.575640        3.154750
 C          -0.576525        3.972808        2.414906
 N          -1.093551        3.935107        3.402941
