94
 generated by VMD
 C          -9.599590      -12.065017        3.921786
 H         -10.332143      -11.907800        3.123019
 H          -9.746367      -13.077605        4.312429
 H          -9.818193      -11.355713        4.727377
 C          -8.173372      -11.885928        3.395504
 H          -8.015014      -12.623180        2.598244
 C          -7.171132      -12.169514        4.515306
 H          -7.239856      -11.418359        5.309383
 H          -7.357030      -13.151892        4.962973
 H          -6.143872      -12.175925        4.138835
 C          -8.009511      -10.474164        2.802440
 H          -8.148934       -9.722859        3.590294
 H          -8.804832      -10.306627        2.064572
 C          -6.654530      -10.251278        2.120943
 H          -6.492808      -11.045990        1.385090
 H          -5.848130      -10.313889        2.859534
 C          -6.600667       -8.879854        1.437522
 H          -6.883853       -8.116135        2.173481
 H          -7.352738       -8.840386        0.639117
 C          -5.211585       -8.524309        0.861981
 H          -4.474218       -8.607016        1.671054
 C          -4.802337       -9.486081       -0.257689
 H          -3.804646       -9.253334       -0.641060
 H          -4.761542      -10.519905        0.097448
 H          -5.507528       -9.441200       -1.094305
 C          -5.230452       -7.058009        0.375189
 H          -5.613966       -6.423891        1.184983
 H          -5.931406       -6.954602       -0.463020
 C          -3.854041       -6.527570       -0.044199
 H          -3.502037       -7.080379       -0.919617
 H          -3.134347       -6.693721        0.765889
 C          -3.916857       -5.031734       -0.376274
 H          -4.371578       -4.507069        0.473970
 H          -4.584131       -4.876770       -1.233799
 C          -2.537442       -4.399321       -0.667286
 H          -1.879669       -4.604181        0.187416
 C          -1.893729       -5.000133       -1.920622
 H          -0.905151       -4.571039       -2.108095
 H          -1.745817       -6.078993       -1.817072
 H          -2.514126       -4.825022       -2.805881
 C          -2.703497       -2.868346       -0.791711
 H          -3.325648       -2.633142       -1.664761
 H          -3.246099       -2.499666        0.088460
 C          -1.376486       -2.109043       -0.892730
 H          -0.722729       -2.400224       -0.061948
 H          -0.860759       -2.370245       -1.823046
 C          -1.601833       -0.593740       -0.860886
 H          -2.106879       -0.317559        0.072414
 H          -2.265773       -0.317800       -1.687129
 C          -0.275639        0.165839       -0.970656
 H           0.191482       -0.054002       -1.939193
 H           0.405966       -0.216476       -0.199740
 C          -0.416714        1.694574       -0.794840
 H          -0.925719        1.881967        0.158717
 C          -1.257186        2.315100       -1.914896
 H          -2.261562        1.883159       -1.948713
 H          -1.390736        3.390575       -1.766510
 H          -0.787803        2.161606       -2.892309
 C           0.993307        2.322398       -0.724099
 H           1.576278        1.792020        0.040031
 H           1.512752        2.167102       -1.678484
 C           0.999076        3.817683       -0.381653
 H           0.486843        4.374453       -1.170914
 H           0.449402        3.985456        0.556659
 C           2.434747        4.339626       -0.238988
 H           2.959300        3.712057        0.493168
 H           2.962463        4.215209       -1.193378
 C           2.527383        5.813142        0.215793
 H           1.971681        5.917923        1.155593
 C           1.907975        6.763641       -0.813040
 H           0.849499        6.541590       -0.976942
 H           1.954807        7.803562       -0.477057
 H           2.424034        6.693709       -1.776356
 C           4.007136        6.160579        0.492869
 H           4.428343        5.401305        1.164574
 H           4.580956        6.106560       -0.441143
 C           4.208240        7.537738        1.136153
 H           3.905700        8.327117        0.440086
 H           3.569248        7.614264        2.022496
 C           5.674896        7.754808        1.525717
 H           5.966481        7.009392        2.276679
 H           6.302475        7.573751        0.643441
 C           5.965298        9.170341        2.058231
 H           5.653193        9.901767        1.302022
 C           5.213387        9.472656        3.355197
 H           4.131123        9.484571        3.195197
 H           5.492894       10.457383        3.745347
 H           5.437036        8.728119        4.126663
 C           7.469858        9.341729        2.281952
 H           8.023775        9.170938        1.352766
 H           7.699716       10.356484        2.623886
 H           7.842820        8.637846        3.033830
 C          -0.559007        4.738903        2.787272
 N          -0.189242        5.498134        3.516242
