94
 generated by VMD
 C          -9.481727      -12.166421        3.982347
 H         -10.252905      -11.967685        3.230568
 H          -9.619526      -13.193789        4.335906
 H          -9.650173      -11.491160        4.828234
 C          -8.082800      -11.977376        3.390399
 H          -7.974432      -12.680335        2.554724
 C          -7.027055      -12.318913        4.442819
 H          -7.046018      -11.602815        5.271286
 H          -7.200526      -13.318316        4.856497
 H          -6.020858      -12.317973        4.013166
 C          -7.933923      -10.542493        2.851347
 H          -8.023599       -9.825227        3.677238
 H          -8.764606      -10.335526        2.164190
 C          -6.613792      -10.302272        2.109959
 H          -6.499503      -11.065724        1.333253
 H          -5.770785      -10.404025        2.801838
 C          -6.580412       -8.903034        1.484064
 H          -6.815725       -8.169394        2.266054
 H          -7.373094       -8.822220        0.729245
 C          -5.219818       -8.535215        0.851004
 H          -4.441706       -8.658322        1.615539
 C          -4.880459       -9.452100       -0.328129
 H          -3.901627       -9.212216       -0.753423
 H          -4.832570      -10.500426       -0.019436
 H          -5.627903       -9.365373       -1.123760
 C          -5.248980       -7.049438        0.427866
 H          -5.579942       -6.446858        1.283637
 H          -5.994183       -6.904481       -0.364783
 C          -3.892322       -6.513628       -0.045536
 H          -3.595399       -7.032879       -0.960974
 H          -3.130589       -6.718895        0.715652
 C          -3.957832       -5.004960       -0.312701
 H          -4.356204       -4.511595        0.583328
 H          -4.672505       -4.809389       -1.122417
 C          -2.591172       -4.372740       -0.659236
 H          -1.886709       -4.616583        0.146629
 C          -2.028002       -4.928580       -1.970782
 H          -1.047366       -4.500888       -2.198768
 H          -1.885828       -6.011897       -1.918615
 H          -2.696915       -4.713039       -2.810628
 C          -2.748620       -2.836709       -0.713559
 H          -3.422215       -2.562698       -1.535648
 H          -3.230861       -2.498625        0.212827
 C          -1.423138       -2.084104       -0.869678
 H          -0.720881       -2.412025       -0.094001
 H          -0.970193       -2.313022       -1.840308
 C          -1.630803       -0.569443       -0.766137
 H          -2.068541       -0.324971        0.209044
 H          -2.346508       -0.257685       -1.534400
 C          -0.307727        0.183886       -0.938373
 H           0.089814       -0.003391       -1.944114
 H           0.421328       -0.231675       -0.230651
 C          -0.420735        1.706065       -0.698099
 H          -0.857311        1.862097        0.296643
 C          -1.332808        2.374892       -1.730731
 H          -2.340940        1.951026       -1.709752
 H          -1.445823        3.444584       -1.531196
 H          -0.934966        2.257097       -2.744152
 C           0.997251        2.319813       -0.703687
 H           1.617400        1.772733        0.018219
 H           1.459241        2.172419       -1.688414
 C           1.036075        3.810960       -0.346913
 H           0.523622        4.382946       -1.125379
 H           0.502575        3.980672        0.596132
 C           2.482037        4.306026       -0.215901
 H           3.000300        3.666432        0.510248
 H           3.000783        4.176376       -1.174399
 C           2.599173        5.775851        0.244710
 H           2.020699        5.892455        1.169986
 C           2.032936        6.741187       -0.801258
 H           0.981538        6.530974       -1.016094
 H           2.074733        7.777264       -0.452657
 H           2.590594        6.675756       -1.741490
 C           4.079153        6.087406        0.560736
 H           4.460786        5.324510        1.251693
 H           4.677593        6.008184       -0.355889
 C           4.298683        7.465830        1.195152
 H           4.036818        8.254909        0.482376
 H           3.637348        7.569093        2.062166
 C           5.759153        7.648726        1.623547
 H           6.009633        6.904824        2.390664
 H           6.406086        7.440733        0.761415
 C           6.072286        9.062343        2.148205
 H           5.801014        9.792693        1.375392
 C           5.292846        9.399792        3.419998
 H           4.216166        9.438278        3.229416
 H           5.587514       10.381401        3.806835
 H           5.474978        8.658875        4.205733
 C           7.574069        9.196653        2.412279
 H           8.148882        9.000362        1.500993
 H           7.821304       10.208968        2.749286
 H           7.907047        8.492114        3.182095
 C          -1.251910        6.555133        1.819576
 N          -1.700910        6.276351        0.837108
