94
 generated by VMD
 C          -9.559251      -12.001905        4.007809
 H         -10.301950      -11.848807        3.217658
 H          -9.702981      -13.011351        4.407623
 H          -9.765724      -11.286389        4.811100
 C          -8.139715      -11.829720        3.461518
 H          -7.993380      -12.573082        2.667647
 C          -7.123425      -12.107346        4.570105
 H          -7.180172      -11.350323        5.359540
 H          -7.305426      -13.086064        5.027288
 H          -6.101215      -12.118685        4.180239
 C          -7.980745      -10.422658        2.856043
 H          -8.108630       -9.665354        3.640102
 H          -8.785117      -10.258905        2.127194
 C          -6.634140      -10.207460        2.155724
 H          -6.483231      -11.007826        1.423703
 H          -5.818568      -10.266273        2.884493
 C          -6.586281       -8.841177        1.461623
 H          -6.859475       -8.071609        2.195263
 H          -7.347694       -8.806290        0.671916
 C          -5.203488       -8.492292        0.867186
 H          -4.456841       -8.570599        1.668144
 C          -4.809108       -9.462782       -0.250273
 H          -3.815940       -9.234077       -0.647567
 H          -4.765235      -10.494006        0.112011
 H          -5.524442       -9.423184       -1.078501
 C          -5.225332       -7.029513        0.370076
 H          -5.600097       -6.389136        1.179035
 H          -5.934230       -6.931046       -0.462010
 C          -3.852233       -6.504074       -0.066176
 H          -3.509700       -7.062675       -0.941704
 H          -3.124933       -6.666749        0.737806
 C          -3.915601       -5.010059       -0.406356
 H          -4.363218       -4.479983        0.444294
 H          -4.589004       -4.858950       -1.259749
 C          -2.537355       -4.381500       -0.710835
 H          -1.873463       -4.583979        0.139683
 C          -1.904532       -4.988994       -1.966460
 H          -0.916851       -4.562224       -2.163704
 H          -1.757622       -6.067635       -1.859139
 H          -2.531630       -4.816896       -2.847579
 C          -2.701083       -2.850754       -0.840817
 H          -3.325774       -2.617626       -1.712572
 H          -3.239804       -2.477539        0.039826
 C          -1.372683       -2.094764       -0.948896
 H          -0.717111       -2.384689       -0.119102
 H          -0.860290       -2.360283       -1.879831
 C          -1.594463       -0.578861       -0.921276
 H          -2.100541       -0.299284        0.010462
 H          -2.256267       -0.303140       -1.749314
 C          -0.266267        0.177438       -1.029858
 H           0.202383       -0.044522       -1.997149
 H           0.412830       -0.205548       -0.257068
 C          -0.405019        1.706476       -0.855605
 H          -0.919715        1.895439        0.094680
 C          -1.237206        2.328193       -1.981226
 H          -2.242588        1.899005       -2.020355
 H          -1.368229        3.404269       -1.835132
 H          -0.762735        2.172104       -2.955780
 C           1.005461        2.332165       -0.776500
 H           1.586216        1.795103       -0.015425
 H           1.527141        2.185940       -1.730989
 C           1.009899        3.823611       -0.418261
 H           0.493884        4.389796       -1.198405
 H           0.454513        3.979888        0.535256
 C           2.444097        4.347503       -0.268977
 H           2.971775        3.709049        0.451381
 H           2.970694        4.241682       -1.226181
 C           2.530982        5.813167        0.211979
 H           1.970526        5.900563        1.151177
 C           1.913815        6.779369       -0.803590
 H           0.857362        6.555894       -0.978206
 H           1.954335        7.813285       -0.448737
 H           2.436112        6.728840       -1.764767
 C           4.008704        6.159539        0.501249
 H           4.428775        5.390460        1.162422
 H           4.586769        6.122007       -0.430956
 C           4.203648        7.526577        1.167618
 H           3.902326        8.326348        0.482980
 H           3.560457        7.587290        2.052137
 C           5.667954        7.740896        1.567474
 H           5.957915        6.984311        2.307819
 H           6.300074        7.575480        0.685372
 C           5.952203        9.148490        2.123883
 H           5.640879        9.891136        1.378366
 C           5.194399        9.427657        3.422620
 H           4.112705        9.438443        3.258756
 H           5.469062       10.407012        3.829379
 H           5.417734        8.671747        4.183042
 C           7.455363        9.320620        2.356242
 H           8.013387        9.166391        1.426619
 H           7.680868       10.330427        2.715305
 H           7.827496        8.605853        3.098195
 C          -0.504079        4.296021        2.536508
 N          -0.923832        4.463243        3.556648
