94
 generated by VMD
 C          -9.537158      -11.963806        4.055829
 H         -10.285218      -11.807284        3.271427
 H          -9.681154      -12.973311        4.455389
 H          -9.735346      -11.248687        4.861559
 C          -8.121189      -11.795449        3.499202
 H          -7.983205      -12.538171        2.703234
 C          -7.097548      -12.077908        4.599764
 H          -7.145968      -11.321837        5.390666
 H          -7.279276      -13.056689        5.056919
 H          -6.078321      -12.091954        4.202256
 C          -7.962165      -10.388070        2.894503
 H          -8.081492       -9.631431        3.680549
 H          -8.771564      -10.220624        2.172082
 C          -6.620278      -10.176416        2.184118
 H          -6.477695      -10.976403        1.450027
 H          -5.799284      -10.238771        2.906477
 C          -6.573362       -8.809477        1.491278
 H          -6.837716       -8.039835        2.228072
 H          -7.341261       -8.770993        0.708034
 C          -5.194462       -8.464582        0.885544
 H          -4.441335       -8.545766        1.680127
 C          -4.812545       -9.435521       -0.235860
 H          -3.821774       -9.210053       -0.640908
 H          -4.769392      -10.467212        0.125162
 H          -5.534365       -9.392652       -1.058280
 C          -5.216072       -7.001382        0.389658
 H          -5.580527       -6.360246        1.202724
 H          -5.932969       -6.899977       -0.435203
 C          -3.845762       -6.480213       -0.060215
 H          -3.513503       -7.040307       -0.938722
 H          -3.111063       -6.644477        0.736686
 C          -3.908337       -4.986284       -0.400825
 H          -4.344688       -4.454144        0.454384
 H          -4.590945       -4.833854       -1.246654
 C          -2.531900       -4.361955       -0.721698
 H          -1.859197       -4.564336        0.121901
 C          -1.914369       -4.973616       -1.982917
 H          -0.927925       -4.549638       -2.191997
 H          -1.768689       -6.052347       -1.874898
 H          -2.550774       -4.801957       -2.857426
 C          -2.693424       -2.831086       -0.853014
 H          -3.328723       -2.598436       -1.717226
 H          -3.219910       -2.454539        0.033593
 C          -1.364794       -2.078553       -0.980169
 H          -0.699085       -2.367933       -0.158284
 H          -0.865281       -2.347561       -1.917086
 C          -1.582717       -0.562108       -0.953539
 H          -2.074221       -0.278654       -0.015183
 H          -2.256136       -0.287207       -1.772449
 C          -0.254639        0.190752       -1.084358
 H           0.198872       -0.035057       -2.057944
 H           0.435220       -0.191378       -0.320752
 C          -0.387479        1.720230       -0.912819
 H          -0.884153        1.914797        0.046883
 C          -1.238238        2.340581       -2.025152
 H          -2.246223        1.916082       -2.042450
 H          -1.360985        3.418051       -1.882035
 H          -0.783439        2.177348       -3.007878
 C           1.024745        2.344814       -0.859971
 H           1.619294        1.804796       -0.111817
 H           1.529076        2.205235       -1.824529
 C           1.028914        3.833558       -0.492292
 H           0.516346        4.405685       -1.270667
 H           0.464300        3.979705        0.461954
 C           2.459847        4.359089       -0.326637
 H           2.988783        3.706703        0.380134
 H           2.989696        4.279079       -1.284464
 C           2.534765        5.812762        0.191408
 H           1.968460        5.871972        1.129779
 C           1.915655        6.799834       -0.802717
 H           0.861993        6.572617       -0.989119
 H           1.946059        7.824603       -0.421306
 H           2.443645        6.777884       -1.761858
 C           4.008697        6.161449        0.496332
 H           4.430091        5.379916        1.141880
 H           4.591674        6.148624       -0.433484
 C           4.192296        7.514076        1.194560
 H           3.889505        8.327471        0.526808
 H           3.544637        7.550894        2.077122
 C           5.653506        7.727628        1.606077
 H           5.944574        6.955799        2.330070
 H           6.290543        7.586264        0.723327
 C           5.927212        9.123548        2.196138
 H           5.615380        9.881485        1.466394
 C           5.161664        9.368577        3.497207
 H           4.080751        9.377851        3.328171
 H           5.429381       10.339504        3.928092
 H           5.385071        8.596222        4.240896
 C           7.428280        9.298376        2.439831
 H           7.991606        9.168768        1.509644
 H           7.646499       10.300776        2.823318
 H           7.800776        8.568596        3.166840
 C          -0.614255        3.868284        2.373039
 N          -1.167238        3.750009        3.334925
