94
 generated by VMD
 C          -9.535347      -11.961231        4.059051
 H         -10.283930      -11.804459        3.275198
 H          -9.679288      -12.970732        4.458632
 H          -9.732777      -11.246122        4.864976
 C          -8.119747      -11.793144        3.501422
 H          -7.982464      -12.535846        2.705313
 C          -7.095375      -12.075862        4.601238
 H          -7.143013      -11.319773        5.392170
 H          -7.277039      -13.054590        5.058534
 H          -6.076441      -12.090193        4.202986
 C          -7.960961      -10.385769        2.896677
 H          -8.079796       -9.629142        3.682813
 H          -8.770757      -10.218243        2.174721
 C          -6.619468      -10.174174        2.185562
 H          -6.477245      -10.974219        1.451458
 H          -5.798108      -10.236450        2.907511
 C          -6.572974       -8.807302        1.492567
 H          -6.837279       -8.037618        2.229337
 H          -7.341068       -8.769041        0.709506
 C          -5.194275       -8.462258        0.886492
 H          -4.440979       -8.543254        1.680933
 C          -4.812436       -9.433271       -0.234879
 H          -3.821819       -9.207635       -0.640213
 H          -4.768965      -10.464909        0.126265
 H          -5.534477       -9.390669       -1.057117
 C          -5.216164       -6.999106        0.390433
 H          -5.580729       -6.357921        1.203411
 H          -5.933060       -6.897934       -0.434453
 C          -3.845885       -6.477878       -0.059481
 H          -3.513779       -7.037868       -0.938112
 H          -3.111122       -6.642358        0.737313
 C          -3.908216       -4.983871       -0.399827
 H          -4.344344       -4.451777        0.455522
 H          -4.590884       -4.831142       -1.245553
 C          -2.531620       -4.359863       -0.720792
 H          -1.858701       -4.562922        0.122475
 C          -1.914780       -4.971151       -1.982540
 H          -0.928067       -4.547758       -2.191539
 H          -1.769853       -6.050054       -1.875264
 H          -2.551243       -4.798462       -2.856808
 C          -2.692572       -2.828862       -0.851282
 H          -3.328490       -2.595611       -1.714877
 H          -3.218176       -2.452464        0.035909
 C          -1.363789       -2.076728       -0.979340
 H          -0.697450       -2.366424       -0.158081
 H          -0.865142       -2.345772       -1.916701
 C          -1.581274       -0.560213       -0.952279
 H          -2.070474       -0.276632       -0.012754
 H          -2.256606       -0.285202       -1.769580
 C          -0.253375        0.192401       -1.086345
 H           0.197860       -0.033736       -2.060915
 H           0.438208       -0.189604       -0.324235
 C          -0.385514        1.721932       -0.915006
 H          -0.878914        1.917084        0.046429
 C          -1.239891        2.342102       -2.024647
 H          -2.248346        1.918551       -2.037701
 H          -1.361084        3.419825       -1.882106
 H          -0.788973        2.177532       -3.008926
 C           1.026879        2.346553       -0.866810
 H           1.623841        1.806324       -0.120751
 H           1.528124        2.207563       -1.833031
 C           1.031440        3.835102       -0.498376
 H           0.518824        4.407661       -1.276424
 H           0.466692        3.980434        0.455815
 C           2.462239        4.360659       -0.332195
 H           2.991649        3.707094        0.373120
 H           2.991832        4.282800       -1.290337
 C           2.536432        5.813252        0.188974
 H           1.969675        5.870128        1.127267
 C           1.917306        6.802229       -0.803263
 H           0.864068        6.574468       -0.991352
 H           1.946300        7.826027       -0.419136
 H           2.446319        6.783340       -1.761910
 C           4.010084        6.161985        0.495186
 H           4.431600        5.379405        1.139378
 H           4.593474        6.151301       -0.434399
 C           4.192650        7.513326        1.196124
 H           3.889573        8.327841        0.529865
 H           3.544647        7.548026        2.078517
 C           5.653569        7.727036        1.608565
 H           5.944837        6.954179        2.331382
 H           6.291031        7.587574        0.725819
 C           5.926012        9.122190        2.201010
 H           5.613791        9.881036        1.472374
 C           5.159842        9.364542        3.502213
 H           4.078948        9.372485        3.333026
 H           5.426102       10.335344        3.934274
 H           5.384231        8.591631        4.245029
 C           7.426829        9.297931        2.445507
 H           7.990618        9.170265        1.515339
 H           7.643988       10.299940        2.830613
 H           7.799712        8.567386        3.171548
 C          -0.634173        3.820860        2.351529
 N          -1.203430        3.670014        3.299200
